*Heading
** Job name: Job-12 Model name: Model-1
** Generated by: Abaqus/CAE 2023
*Preprint, echo=NO, model=NO, history=NO, contact=NO
**
** PARTS
**
*Part, name=Applicator
*Node
      1,           0.,           2.,  0.100000001
      2,           0.,   1.94999993,  0.100000001
      3,           0.,   1.89999998,  0.100000001
      4,           0.,   1.85000002,  0.100000001
      5,           0.,   1.80000007,  0.100000001
      6,           0.,         1.75,  0.100000001
      7,           0.,   1.69999993,  0.100000001
      8,           0.,   1.64999998,  0.100000001
      9,           0.,   1.60000002,  0.100000001
     10,           0.,   1.55000007,  0.100000001
     11,           0.,          1.5,  0.100000001
     12,           0.,   1.44999993,  0.100000001
     13,           0.,   1.39999998,  0.100000001
     14,           0.,   1.35000002,  0.100000001
     15,           0.,   1.30000007,  0.100000001
     16,           0.,   1.25000012,  0.100000001
     17,           0.,   1.20000017,  0.100000001
     18,           0.,    1.1500001,  0.100000001
     19,           0.,   1.10000002,  0.100000001
     20,           0.,   1.05000007,  0.100000001
** ... 103 like lines cut
*Element, type=R3D4
 1,   1,   2,  43,  42
 2,   2,   3,  44,  43
 3,   3,   4,  45,  44
 4,   4,   5,  46,  45
 5,   5,   6,  47,  46
 6,   6,   7,  48,  47
 7,   7,   8,  49,  48
 8,   8,   9,  50,  49
 9,   9,  10,  51,  50
10,  10,  11,  52,  51
11,  11,  12,  53,  52
12,  12,  13,  54,  53
13,  13,  14,  55,  54
14,  14,  15,  56,  55
15,  15,  16,  57,  56
16,  16,  17,  58,  57
17,  17,  18,  59,  58
18,  18,  19,  60,  59
19,  19,  20,  61,  60
20,  20,  21,  62,  61
** ... 60 like lines cut
*Node
    124,           0.,           2., 0.0500000007
*Nset, nset=Applicator-RefPt_, internal
124, 
*Elset, elset=Applicator, generate
  1,  80,   1
*End Part
**  
*Part, name=Part-6
*Node
      1,           0.,           2.,  0.100000001
      2,           0.,           2.,           0.
      3,           0.,          1.5,           0.
      4,           0.,           0.,           0.
      5,           0.,          1.5,  0.100000001
      6,           0.,           0.,  0.100000001
      7,         0.25,           2.,  0.100000001
      8,         0.25,           2.,           0.
      9,         0.25,           0.,  0.100000001
     10,         0.25,           0.,           0.
     11,           0.,           2., 0.0666666701
     12,           0.,           2., 0.0333333351
     13,           0.,   1.96148264,           0.
     14,           0.,   1.92297912,           0.
     15,           0.,   1.88447571,           0.
     16,           0.,    1.8459723,           0.
     17,           0.,   1.80746889,           0.
     18,           0.,   1.76896536,           0.
     19,           0.,   1.73046207,           0.
     20,           0.,   1.69195879,           0.
** ... 936 like lines cut
*Element, type=R3D4
  1,   1,  11, 237,  75
  2,  11,  12, 238, 237
  3,  12,   2,  13, 238
  4,  75, 237, 239,  74
  5, 237, 238, 240, 239
  6, 238,  13,  14, 240
  7,  74, 239, 241,  73
  8, 239, 240, 242, 241
  9, 240,  14,  15, 242
 10,  73, 241, 243,  72
 11, 241, 242, 244, 243
 12, 242,  15,  16, 244
 13,  72, 243, 245,  71
 14, 243, 244, 246, 245
 15, 244,  16,  17, 246
 16,  71, 245, 247,  70
 17, 245, 246, 248, 247
 18, 246,  17,  18, 248
 19,  70, 247, 249,  69
 20, 247, 248, 250, 249
** ... 934 like lines cut
*Node
    957,        0.125,           2.,  0.100000001
*Nset, nset=Part-6-RefPt_, internal
957, 
*Nset, nset=Set-rf-parti-6
 957,
*Nset, nset=Set-bottom
   4,   6,   9,  10,  62,  63, 125, 126, 127, 128, 129, 130, 131, 132, 133, 134
 135, 136, 347, 348, 349, 350, 351, 352, 353, 354, 355, 356
*Elset, elset=Set-bottom, generate
 172,  189,    1
*Elset, elset=Part-6, generate
   1,  954,    1
*End Part
**  
*Part, name=Water
*Node
      1,          10.,           2.,  0.100000001
      2,          10.,   1.95000005,  0.100000001
      3,          10.,   1.89999998,  0.100000001
      4,          10.,   1.85000002,  0.100000001
      5,          10.,   1.79999995,  0.100000001
      6,          10.,         1.75,  0.100000001
      7,          10.,   1.70000005,  0.100000001
      8,          10.,   1.64999998,  0.100000001
      9,          10.,   1.60000002,  0.100000001
     10,          10.,   1.54999995,  0.100000001
     11,          10.,          1.5,  0.100000001
     12,          10.,   1.45000005,  0.100000001
     13,          10.,   1.39999998,  0.100000001
     14,          10.,   1.35000002,  0.100000001
     15,          10.,   1.29999995,  0.100000001
     16,          10.,         1.25,  0.100000001
     17,          10.,   1.20000005,  0.100000001
     18,          10.,   1.14999998,  0.100000001
     19,          10.,   1.10000002,  0.100000001
     20,          10.,   1.04999995,  0.100000001
** ... 24703 like lines cut
*Element, type=EC3D8R
    1,   124,   125,   166,   165,     1,     2,    43,    42
    2,   125,   126,   167,   166,     2,     3,    44,    43
    3,   126,   127,   168,   167,     3,     4,    45,    44
    4,   127,   128,   169,   168,     4,     5,    46,    45
    5,   128,   129,   170,   169,     5,     6,    47,    46
    6,   129,   130,   171,   170,     6,     7,    48,    47
    7,   130,   131,   172,   171,     7,     8,    49,    48
    8,   131,   132,   173,   172,     8,     9,    50,    49
    9,   132,   133,   174,   173,     9,    10,    51,    50
   10,   133,   134,   175,   174,    10,    11,    52,    51
   11,   134,   135,   176,   175,    11,    12,    53,    52
   12,   135,   136,   177,   176,    12,    13,    54,    53
   13,   136,   137,   178,   177,    13,    14,    55,    54
   14,   137,   138,   179,   178,    14,    15,    56,    55
   15,   138,   139,   180,   179,    15,    16,    57,    56
   16,   139,   140,   181,   180,    16,    17,    58,    57
   17,   140,   141,   182,   181,    17,    18,    59,    58
   18,   141,   142,   183,   182,    18,    19,    60,    59
   19,   142,   143,   184,   183,    19,    20,    61,    60
   20,   143,   144,   185,   184,    20,    21,    62,    61
** ... 15980 like lines cut
*Nset, nset=Set-1, generate
     1,  24723,      1
*Elset, elset=Set-1, generate
     1,  16000,      1
*Nset, nset=Z
     1,     2,     3,     4,     5,     6,     7,     8,     9,    10,    11,    12,    13,    14,    15,    16
    17,    18,    19,    20,    21,    22,    23,    24,    25,    26,    27,    28,    29,    30,    31,    32
    33,    34,    35,    36,    37,    38,    39,    40,    41,    83,    84,    85,    86,    87,    88,    89
    90,    91,    92,    93,    94,    95,    96,    97,    98,    99,   100,   101,   102,   103,   104,   105
   106,   107,   108,   109,   110,   111,   112,   113,   114,   115,   116,   117,   118,   119,   120,   121
   122,   123,   124,   125,   126,   127,   128,   129,   130,   131,   132,   133,   134,   135,   136,   137
   138,   139,   140,   141,   142,   143,   144,   145,   146,   147,   148,   149,   150,   151,   152,   153
   154,   155,   156,   157,   158,   159,   160,   161,   162,   163,   164,   206,   207,   208,   209,   210
   211,   212,   213,   214,   215,   216,   217,   218,   219,   220,   221,   222,   223,   224,   225,   226
   227,   228,   229,   230,   231,   232,   233,   234,   235,   236,   237,   238,   239,   240,   241,   242
   243,   244,   245,   246,   247,   248,   249,   250,   251,   252,   253,   254,   255,   256,   257,   258
   259,   260,   261,   262,   263,   264,   265,   266,   267,   268,   269,   270,   271,   272,   273,   274
   275,   276,   277,   278,   279,   280,   281,   282,   283,   284,   285,   286,   287,   329,   330,   331
   332,   333,   334,   335,   336,   337,   338,   339,   340,   341,   342,   343,   344,   345,   346,   347
   348,   349,   350,   351,   352,   353,   354,   355,   356,   357,   358,   359,   360,   361,   362,   363
   364,   365,   366,   367,   368,   369,   370,   371,   372,   373,   374,   375,   376,   377,   378,   379
   380,   381,   382,   383,   384,   385,   386,   387,   388,   389,   390,   391,   392,   393,   394,   395
   396,   397,   398,   399,   400,   401,   402,   403,   404,   405,   406,   407,   408,   409,   410,   452
   453,   454,   455,   456,   457,   458,   459,   460,   461,   462,   463,   464,   465,   466,   467,   468
   469,   470,   471,   472,   473,   474,   475,   476,   477,   478,   479,   480,   481,   482,   483,   484
** ... 1011 like lines cut
*Elset, elset=Z, generate
     1,  16000,      1
*Nset, nset=X
     1,     2,     3,     4,     5,     6,     7,     8,     9,    10,    11,    12,    13,    14,    15,    16
    17,    18,    19,    20,    21,    22,    23,    24,    25,    26,    27,    28,    29,    30,    31,    32
    33,    34,    35,    36,    37,    38,    39,    40,    41,    42,    43,    44,    45,    46,    47,    48
    49,    50,    51,    52,    53,    54,    55,    56,    57,    58,    59,    60,    61,    62,    63,    64
    65,    66,    67,    68,    69,    70,    71,    72,    73,    74,    75,    76,    77,    78,    79,    80
    81,    82,    83,    84,    85,    86,    87,    88,    89,    90,    91,    92,    93,    94,    95,    96
    97,    98,    99,   100,   101,   102,   103,   104,   105,   106,   107,   108,   109,   110,   111,   112
   113,   114,   115,   116,   117,   118,   119,   120,   121,   122,   123, 24601, 24602, 24603, 24604, 24605
 24606, 24607, 24608, 24609, 24610, 24611, 24612, 24613, 24614, 24615, 24616, 24617, 24618, 24619, 24620, 24621
 24622, 24623, 24624, 24625, 24626, 24627, 24628, 24629, 24630, 24631, 24632, 24633, 24634, 24635, 24636, 24637
 24638, 24639, 24640, 24641, 24642, 24643, 24644, 24645, 24646, 24647, 24648, 24649, 24650, 24651, 24652, 24653
 24654, 24655, 24656, 24657, 24658, 24659, 24660, 24661, 24662, 24663, 24664, 24665, 24666, 24667, 24668, 24669
 24670, 24671, 24672, 24673, 24674, 24675, 24676, 24677, 24678, 24679, 24680, 24681, 24682, 24683, 24684, 24685
 24686, 24687, 24688, 24689, 24690, 24691, 24692, 24693, 24694, 24695, 24696, 24697, 24698, 24699, 24700, 24701
 24702, 24703, 24704, 24705, 24706, 24707, 24708, 24709, 24710, 24711, 24712, 24713, 24714, 24715, 24716, 24717
 24718, 24719, 24720, 24721, 24722, 24723
*Elset, elset=X
     1,     2,     3,     4,     5,     6,     7,     8,     9,    10,    11,    12,    13,    14,    15,    16
    17,    18,    19,    20,    21,    22,    23,    24,    25,    26,    27,    28,    29,    30,    31,    32
    33,    34,    35,    36,    37,    38,    39,    40,    41,    42,    43,    44,    45,    46,    47,    48
    49,    50,    51,    52,    53,    54,    55,    56,    57,    58,    59,    60,    61,    62,    63,    64
    65,    66,    67,    68,    69,    70,    71,    72,    73,    74,    75,    76,    77,    78,    79,    80
 15921, 15922, 15923, 15924, 15925, 15926, 15927, 15928, 15929, 15930, 15931, 15932, 15933, 15934, 15935, 15936
 15937, 15938, 15939, 15940, 15941, 15942, 15943, 15944, 15945, 15946, 15947, 15948, 15949, 15950, 15951, 15952
 15953, 15954, 15955, 15956, 15957, 15958, 15959, 15960, 15961, 15962, 15963, 15964, 15965, 15966, 15967, 15968
 15969, 15970, 15971, 15972, 15973, 15974, 15975, 15976, 15977, 15978, 15979, 15980, 15981, 15982, 15983, 15984
 15985, 15986, 15987, 15988, 15989, 15990, 15991, 15992, 15993, 15994, 15995, 15996, 15997, 15998, 15999, 16000
*Nset, nset=Y
     1,    41,    42,    82,    83,   123,   124,   164,   165,   205,   206,   246,   247,   287,   288,   328
   329,   369,   370,   410,   411,   451,   452,   492,   493,   533,   534,   574,   575,   615,   616,   656
   657,   697,   698,   738,   739,   779,   780,   820,   821,   861,   862,   902,   903,   943,   944,   984
   985,  1025,  1026,  1066,  1067,  1107,  1108,  1148,  1149,  1189,  1190,  1230,  1231,  1271,  1272,  1312
  1313,  1353,  1354,  1394,  1395,  1435,  1436,  1476,  1477,  1517,  1518,  1558,  1559,  1599,  1600,  1640
  1641,  1681,  1682,  1722,  1723,  1763,  1764,  1804,  1805,  1845,  1846,  1886,  1887,  1927,  1928,  1968
  1969,  2009,  2010,  2050,  2051,  2091,  2092,  2132,  2133,  2173,  2174,  2214,  2215,  2255,  2256,  2296
  2297,  2337,  2338,  2378,  2379,  2419,  2420,  2460,  2461,  2501,  2502,  2542,  2543,  2583,  2584,  2624
  2625,  2665,  2666,  2706,  2707,  2747,  2748,  2788,  2789,  2829,  2830,  2870,  2871,  2911,  2912,  2952
  2953,  2993,  2994,  3034,  3035,  3075,  3076,  3116,  3117,  3157,  3158,  3198,  3199,  3239,  3240,  3280
  3281,  3321,  3322,  3362,  3363,  3403,  3404,  3444,  3445,  3485,  3486,  3526,  3527,  3567,  3568,  3608
  3609,  3649,  3650,  3690,  3691,  3731,  3732,  3772,  3773,  3813,  3814,  3854,  3855,  3895,  3896,  3936
  3937,  3977,  3978,  4018,  4019,  4059,  4060,  4100,  4101,  4141,  4142,  4182,  4183,  4223,  4224,  4264
  4265,  4305,  4306,  4346,  4347,  4387,  4388,  4428,  4429,  4469,  4470,  4510,  4511,  4551,  4552,  4592
  4593,  4633,  4634,  4674,  4675,  4715,  4716,  4756,  4757,  4797,  4798,  4838,  4839,  4879,  4880,  4920
  4921,  4961,  4962,  5002,  5003,  5043,  5044,  5084,  5085,  5125,  5126,  5166,  5167,  5207,  5208,  5248
  5249,  5289,  5290,  5330,  5331,  5371,  5372,  5412,  5413,  5453,  5454,  5494,  5495,  5535,  5536,  5576
  5577,  5617,  5618,  5658,  5659,  5699,  5700,  5740,  5741,  5781,  5782,  5822,  5823,  5863,  5864,  5904
  5905,  5945,  5946,  5986,  5987,  6027,  6028,  6068,  6069,  6109,  6110,  6150,  6151,  6191,  6192,  6232
  6233,  6273,  6274,  6314,  6315,  6355,  6356,  6396,  6397,  6437,  6438,  6478,  6479,  6519,  6520,  6560
** ... 56 like lines cut
*Elset, elset=Y
     1,    40,    41,    80,    81,   120,   121,   160,   161,   200,   201,   240,   241,   280,   281,   320
   321,   360,   361,   400,   401,   440,   441,   480,   481,   520,   521,   560,   561,   600,   601,   640
   641,   680,   681,   720,   721,   760,   761,   800,   801,   840,   841,   880,   881,   920,   921,   960
   961,  1000,  1001,  1040,  1041,  1080,  1081,  1120,  1121,  1160,  1161,  1200,  1201,  1240,  1241,  1280
  1281,  1320,  1321,  1360,  1361,  1400,  1401,  1440,  1441,  1480,  1481,  1520,  1521,  1560,  1561,  1600
  1601,  1640,  1641,  1680,  1681,  1720,  1721,  1760,  1761,  1800,  1801,  1840,  1841,  1880,  1881,  1920
  1921,  1960,  1961,  2000,  2001,  2040,  2041,  2080,  2081,  2120,  2121,  2160,  2161,  2200,  2201,  2240
  2241,  2280,  2281,  2320,  2321,  2360,  2361,  2400,  2401,  2440,  2441,  2480,  2481,  2520,  2521,  2560
  2561,  2600,  2601,  2640,  2641,  2680,  2681,  2720,  2721,  2760,  2761,  2800,  2801,  2840,  2841,  2880
  2881,  2920,  2921,  2960,  2961,  3000,  3001,  3040,  3041,  3080,  3081,  3120,  3121,  3160,  3161,  3200
  3201,  3240,  3241,  3280,  3281,  3320,  3321,  3360,  3361,  3400,  3401,  3440,  3441,  3480,  3481,  3520
  3521,  3560,  3561,  3600,  3601,  3640,  3641,  3680,  3681,  3720,  3721,  3760,  3761,  3800,  3801,  3840
  3841,  3880,  3881,  3920,  3921,  3960,  3961,  4000,  4001,  4040,  4041,  4080,  4081,  4120,  4121,  4160
  4161,  4200,  4201,  4240,  4241,  4280,  4281,  4320,  4321,  4360,  4361,  4400,  4401,  4440,  4441,  4480
  4481,  4520,  4521,  4560,  4561,  4600,  4601,  4640,  4641,  4680,  4681,  4720,  4721,  4760,  4761,  4800
  4801,  4840,  4841,  4880,  4881,  4920,  4921,  4960,  4961,  5000,  5001,  5040,  5041,  5080,  5081,  5120
  5121,  5160,  5161,  5200,  5201,  5240,  5241,  5280,  5281,  5320,  5321,  5360,  5361,  5400,  5401,  5440
  5441,  5480,  5481,  5520,  5521,  5560,  5561,  5600,  5601,  5640,  5641,  5680,  5681,  5720,  5721,  5760
  5761,  5800,  5801,  5840,  5841,  5880,  5881,  5920,  5921,  5960,  5961,  6000,  6001,  6040,  6041,  6080
  6081,  6120,  6121,  6160,  6161,  6200,  6201,  6240,  6241,  6280,  6281,  6320,  6321,  6360,  6361,  6400
** ... 30 like lines cut
** Section: Section-1
*Eulerian Section, elset=Set-1
Water, water-1
*Surface, type=EULERIAN MATERIAL, name=water-1
water-1
*End Part
**  
**
** ASSEMBLY
**
*Assembly, name=Assembly
**  
*Instance, name=Applicator-1, part=Applicator
*End Instance
**  
*Instance, name=Water-1, part=Water
*End Instance
**  
*Instance, name=Part-6-1, part=Part-6
        6.75,        0.125,           0.
*End Instance
**  
*Node
      1,         6.75,        0.875,           0.
*Node
      2,         6.75,        0.875,  0.100000001
*Node
      3,           0.,           1.,  0.100000001
*Nset, nset=Set-2, instance=Applicator-1
 124,
*Nset, nset=Set-4, instance=Part-6-1
   4,   6,   9,  10,  62,  63, 125, 126, 127, 128, 129, 130, 131, 132, 133, 134
 135, 136, 347, 348, 349, 350, 351, 352, 353, 354, 355, 356
*Elset, elset=Set-4, instance=Part-6-1, generate
 172,  189,    1
*Nset, nset=Set-5, instance=Part-6-1
 957,
*Nset, nset=Set-6, instance=Water-1, generate
     1,  24723,      1
*Nset, nset=Set-6, instance=Part-6-1
   2,   3,   4,   7,   8,   9,  10,  13,  14,  15,  16,  17,  18,  19,  20,  21
  22,  23,  24,  25,  26,  27,  28,  29,  30,  31,  32,  33,  34,  35,  36,  37
  38,  39,  40,  41,  42,  43,  44,  45,  46,  47,  48,  49,  50,  51,  52,  53
  54,  55,  56,  57,  58,  59,  60,  61, 118, 119, 120, 121, 122, 123, 124, 130
 131, 132, 133, 134, 135, 136, 137, 138, 139, 140, 141, 142, 143, 144, 145, 146
 147, 148, 149, 150, 151, 152, 153, 154, 155, 156, 157, 158, 159, 160, 161, 162
 163, 164, 165, 166, 167, 168, 169, 170, 171, 172, 173, 174, 175, 176, 177, 178
 179, 180, 181, 182, 183, 184, 185, 186, 187, 188, 189, 190, 191, 192, 193, 194
 195, 196, 197, 198, 199, 200, 201, 202, 203, 204, 205, 206, 207, 208, 209, 210
 211, 212, 213, 214, 215, 216, 217, 218, 219, 220, 221, 222, 223, 224, 225, 226
 227, 228, 229, 230, 231, 232, 233, 234, 235, 236, 357, 358, 359, 360, 361, 362
 363, 364, 365, 366, 367, 368, 369, 370, 371, 372, 373, 374, 375, 376, 377, 378
 379, 380, 381, 382, 383, 384, 385, 386, 387, 388, 389, 390, 391, 392, 393, 394
 395, 396, 397, 398, 399, 400, 401, 402, 403, 404, 405, 406, 407, 408, 409, 410
 411, 412, 413, 414, 415, 416, 417, 418, 419, 420, 421, 422, 423, 424, 425, 426
 427, 428, 429, 430, 431, 432, 433, 434, 435, 436, 437, 438, 439, 440, 441, 442
 443, 444, 445, 446, 447, 448, 449, 450, 451, 452, 453, 454, 455, 456, 707, 708
 709, 710, 711, 712, 713, 714, 715, 716, 717, 718, 719, 720, 721, 722, 723, 724
 725, 726, 727, 728, 729, 730, 731, 732, 733, 734, 735, 736, 737, 738, 739, 740
 741, 742, 743, 744, 745, 746, 747, 748, 749, 750, 751, 752, 753, 754, 755, 756
** ... 13 like lines cut
*Elset, elset=Set-6, instance=Water-1, generate
     1,  16000,      1
*Elset, elset=Set-6, instance=Part-6-1
 190, 191, 192, 193, 194, 195, 196, 197, 198, 199, 200, 201, 202, 203, 204, 205
 206, 207, 208, 209, 210, 211, 212, 213, 214, 215, 216, 217, 218, 219, 220, 221
 222, 223, 224, 225, 226, 227, 228, 229, 230, 231, 232, 233, 234, 235, 236, 237
 238, 239, 240, 241, 242, 243, 244, 245, 246, 247, 248, 249, 250, 251, 252, 253
 254, 255, 256, 257, 258, 259, 260, 261, 262, 263, 264, 265, 266, 267, 268, 269
 270, 271, 272, 273, 274, 275, 276, 277, 278, 279, 280, 281, 282, 283, 284, 285
 286, 287, 288, 289, 290, 291, 292, 293, 294, 295, 296, 297, 298, 299, 300, 301
 302, 303, 304, 305, 306, 307, 308, 309, 310, 311, 312, 313, 314, 315, 316, 317
 318, 319, 320, 321, 322, 323, 324, 325, 326, 327, 328, 329, 330, 331, 332, 333
 334, 335, 336, 337, 338, 339, 340, 341, 342, 649, 650, 651, 652, 653, 654, 655
 656, 657, 658, 659, 660, 661, 662, 663, 664, 665, 666, 667, 668, 669, 670, 671
 672, 673, 674, 675, 676, 677, 678, 679, 680, 681, 682, 683, 684, 685, 686, 687
 688, 689, 690, 691, 692, 693, 694, 695, 696, 697, 698, 699, 700, 701, 702, 703
 704, 705, 706, 707, 708, 709, 710, 711, 712, 713, 714, 715, 716, 717, 718, 719
 720, 721, 722, 723, 724, 725, 726, 727, 728, 729, 730, 731, 732, 733, 734, 735
 736, 737, 738, 739, 740, 741, 742, 743, 744, 745, 746, 747, 748, 749, 750, 751
 752, 753, 754, 755, 756, 757, 758, 759, 760, 761, 762, 763, 764, 765, 766, 767
 768, 769, 770, 771, 772, 773, 774, 775, 776, 777, 778, 779, 780, 781, 782, 783
 784, 785, 786, 787, 788, 789, 790, 791, 792, 793, 794, 795, 796, 797, 798, 799
 800, 801, 802, 803, 804, 805, 806, 807, 808, 809, 810, 811, 812, 813, 814, 815
** ... 9 like lines cut
*Nset, nset=Set-8
 1,
*Nset, nset=Set-9, instance=Water-1
 2,
*Nset, nset=Set-11, instance=Part-6-1
   1,   2,   3,   4,   5,   6,   7,   8,   9,  10,  13,  14,  15,  16,  17,  18
  19,  20,  21,  22,  23,  24,  25,  26,  27,  28,  29,  30,  31,  32,  33,  34
  35,  36,  37,  38,  39,  40,  41,  42,  43,  44,  45,  46,  47,  48,  49,  50
  51,  52,  53,  54,  55,  56,  57,  58,  59,  60,  61,  62,  63,  64,  65,  66
  67,  68,  69,  70,  71,  72,  73,  74,  75,  76,  77,  78,  79,  80,  81,  82
  83,  84,  85,  86,  87,  88,  89,  90,  91,  92,  93,  94,  95,  96,  97,  98
  99, 100, 101, 102, 103, 104, 105, 106, 107, 108, 109, 110, 111, 112, 113, 114
 115, 116, 117, 118, 119, 120, 121, 122, 123, 124, 125, 126, 127, 128, 129, 130
 131, 132, 133, 134, 135, 136, 137, 138, 139, 140, 141, 142, 143, 144, 145, 146
 147, 148, 149, 150, 151, 152, 153, 154, 155, 156, 157, 158, 159, 160, 161, 162
 163, 164, 165, 166, 167, 168, 169, 170, 171, 172, 173, 174, 175, 176, 177, 178
 179, 180, 181, 182, 183, 184, 185, 186, 187, 188, 189, 190, 191, 192, 193, 194
 195, 196, 197, 198, 199, 200, 201, 202, 203, 204, 205, 206, 207, 208, 209, 210
 211, 212, 213, 214, 215, 216, 217, 218, 219, 220, 221, 222, 223, 224, 225, 226
 227, 228, 229, 230, 231, 232, 233, 234, 235, 236, 347, 348, 349, 350, 351, 352
 353, 354, 355, 356, 357, 358, 359, 360, 361, 362, 363, 364, 365, 366, 367, 368
 369, 370, 371, 372, 373, 374, 375, 376, 377, 378, 379, 380, 381, 382, 383, 384
 385, 386, 387, 388, 389, 390, 391, 392, 393, 394, 395, 396, 397, 398, 399, 400
 401, 402, 403, 404, 405, 406, 407, 408, 409, 410, 411, 412, 413, 414, 415, 416
 417, 418, 419, 420, 421, 422, 423, 424, 425, 426, 427, 428, 429, 430, 431, 432
** ... 33 like lines cut
*Elset, elset=Set-11, instance=Part-6-1, generate
 172,  954,    1
*Nset, nset=Set-12, instance=Water-1, generate
     1,  24723,      1
*Nset, nset=Set-12, instance=Part-6-1
   1,   2,   3,   4,   5,   6,   7,   8,   9,  10,  13,  14,  15,  16,  17,  18
  19,  20,  21,  22,  23,  24,  25,  26,  27,  28,  29,  30,  31,  32,  33,  34
  35,  36,  37,  38,  39,  40,  41,  42,  43,  44,  45,  46,  47,  48,  49,  50
  51,  52,  53,  54,  55,  56,  57,  58,  59,  60,  61,  62,  63,  64,  65,  66
  67,  68,  69,  70,  71,  72,  73,  74,  75,  76,  77,  78,  79,  80,  81,  82
  83,  84,  85,  86,  87,  88,  89,  90,  91,  92,  93,  94,  95,  96,  97,  98
  99, 100, 101, 102, 103, 104, 105, 106, 107, 108, 109, 110, 111, 112, 113, 114
 115, 116, 117, 118, 119, 120, 121, 122, 123, 124, 125, 126, 127, 128, 129, 130
 131, 132, 133, 134, 135, 136, 137, 138, 139, 140, 141, 142, 143, 144, 145, 146
 147, 148, 149, 150, 151, 152, 153, 154, 155, 156, 157, 158, 159, 160, 161, 162
 163, 164, 165, 166, 167, 168, 169, 170, 171, 172, 173, 174, 175, 176, 177, 178
 179, 180, 181, 182, 183, 184, 185, 186, 187, 188, 189, 190, 191, 192, 193, 194
 195, 196, 197, 198, 199, 200, 201, 202, 203, 204, 205, 206, 207, 208, 209, 210
 211, 212, 213, 214, 215, 216, 217, 218, 219, 220, 221, 222, 223, 224, 225, 226
 227, 228, 229, 230, 231, 232, 233, 234, 235, 236, 347, 348, 349, 350, 351, 352
 353, 354, 355, 356, 357, 358, 359, 360, 361, 362, 363, 364, 365, 366, 367, 368
 369, 370, 371, 372, 373, 374, 375, 376, 377, 378, 379, 380, 381, 382, 383, 384
 385, 386, 387, 388, 389, 390, 391, 392, 393, 394, 395, 396, 397, 398, 399, 400
 401, 402, 403, 404, 405, 406, 407, 408, 409, 410, 411, 412, 413, 414, 415, 416
 417, 418, 419, 420, 421, 422, 423, 424, 425, 426, 427, 428, 429, 430, 431, 432
** ... 33 like lines cut
*Elset, elset=Set-12, instance=Water-1, generate
     1,  16000,      1
*Elset, elset=Set-12, instance=Part-6-1, generate
 172,  954,    1
*Nset, nset=Set-13, instance=Water-1, generate
     1,  24723,      1
*Elset, elset=Set-13, instance=Water-1, generate
     1,  16000,      1
*Nset, nset=Set-14, instance=Part-6-1
   1,   2,   3,   4,   5,   6,   7,   8,   9,  10,  13,  14,  15,  16,  17,  18
  19,  20,  21,  22,  23,  24,  25,  26,  27,  28,  29,  30,  31,  32,  33,  34
  35,  36,  37,  38,  39,  40,  41,  42,  43,  44,  45,  46,  47,  48,  49,  50
  51,  52,  53,  54,  55,  56,  57,  58,  59,  60,  61,  62,  63,  64,  65,  66
  67,  68,  69,  70,  71,  72,  73,  74,  75,  76,  77,  78,  79,  80,  81,  82
  83,  84,  85,  86,  87,  88,  89,  90,  91,  92,  93,  94,  95,  96,  97,  98
  99, 100, 101, 102, 103, 104, 105, 106, 107, 108, 109, 110, 111, 112, 113, 114
 115, 116, 117, 118, 119, 120, 121, 122, 123, 124, 125, 126, 127, 128, 129, 130
 131, 132, 133, 134, 135, 136, 137, 138, 139, 140, 141, 142, 143, 144, 145, 146
 147, 148, 149, 150, 151, 152, 153, 154, 155, 156, 157, 158, 159, 160, 161, 162
 163, 164, 165, 166, 167, 168, 169, 170, 171, 172, 173, 174, 175, 176, 177, 178
 179, 180, 181, 182, 183, 184, 185, 186, 187, 188, 189, 190, 191, 192, 193, 194
 195, 196, 197, 198, 199, 200, 201, 202, 203, 204, 205, 206, 207, 208, 209, 210
 211, 212, 213, 214, 215, 216, 217, 218, 219, 220, 221, 222, 223, 224, 225, 226
 227, 228, 229, 230, 231, 232, 233, 234, 235, 236, 347, 348, 349, 350, 351, 352
 353, 354, 355, 356, 357, 358, 359, 360, 361, 362, 363, 364, 365, 366, 367, 368
 369, 370, 371, 372, 373, 374, 375, 376, 377, 378, 379, 380, 381, 382, 383, 384
 385, 386, 387, 388, 389, 390, 391, 392, 393, 394, 395, 396, 397, 398, 399, 400
 401, 402, 403, 404, 405, 406, 407, 408, 409, 410, 411, 412, 413, 414, 415, 416
 417, 418, 419, 420, 421, 422, 423, 424, 425, 426, 427, 428, 429, 430, 431, 432
** ... 33 like lines cut
*Elset, elset=Set-14, instance=Part-6-1, generate
 172,  954,    1
*Nset, nset=Set-15, instance=Part-6-1
   1,   2,   3,   4,   5,   6,   7,   8,   9,  10,  13,  14,  15,  16,  17,  18
  19,  20,  21,  22,  23,  24,  25,  26,  27,  28,  29,  30,  31,  32,  33,  34
  35,  36,  37,  38,  39,  40,  41,  42,  43,  44,  45,  46,  47,  48,  49,  50
  51,  52,  53,  54,  55,  56,  57,  58,  59,  60,  61,  64,  65,  66,  67,  68
  69,  70,  71,  72,  73,  74,  75,  76,  77,  78,  79,  80,  81,  82,  83,  84
  85,  86,  87,  88,  89,  90,  91,  92,  93,  94,  95,  96,  97,  98,  99, 100
 101, 102, 103, 104, 105, 106, 107, 108, 109, 110, 111, 112, 113, 114, 115, 116
 117, 118, 119, 120, 121, 122, 123, 124, 125, 126, 127, 128, 129, 130, 131, 132
 133, 134, 135, 136, 137, 138, 139, 140, 141, 142, 143, 144, 145, 146, 147, 148
 149, 150, 151, 152, 153, 154, 155, 156, 157, 158, 159, 160, 161, 162, 163, 164
 165, 166, 167, 168, 169, 170, 171, 172, 173, 174, 175, 176, 177, 178, 179, 180
 181, 182, 183, 184, 185, 186, 187, 188, 189, 190, 191, 192, 193, 194, 195, 196
 197, 198, 199, 200, 201, 202, 203, 204, 205, 206, 207, 208, 209, 210, 211, 212
 213, 214, 215, 216, 217, 218, 219, 220, 221, 222, 223, 224, 225, 226, 227, 228
 229, 230, 231, 232, 233, 234, 235, 236, 357, 358, 359, 360, 361, 362, 363, 364
 365, 366, 367, 368, 369, 370, 371, 372, 373, 374, 375, 376, 377, 378, 379, 380
 381, 382, 383, 384, 385, 386, 387, 388, 389, 390, 391, 392, 393, 394, 395, 396
 397, 398, 399, 400, 401, 402, 403, 404, 405, 406, 407, 408, 409, 410, 411, 412
 413, 414, 415, 416, 417, 418, 419, 420, 421, 422, 423, 424, 425, 426, 427, 428
 429, 430, 431, 432, 433, 434, 435, 436, 437, 438, 439, 440, 441, 442, 443, 444
** ... 32 like lines cut
*Elset, elset=Set-15, instance=Part-6-1, generate
 190,  954,    1
*Nset, nset=Set-17, instance=Part-6-1
   1,   2,   3,   4,   5,   6,   7,   8,   9,  10,  13,  14,  15,  16,  17,  18
  19,  20,  21,  22,  23,  24,  25,  26,  27,  28,  29,  30,  31,  32,  33,  34
  35,  36,  37,  38,  39,  40,  41,  42,  43,  44,  45,  46,  47,  48,  49,  50
  51,  52,  53,  54,  55,  56,  57,  58,  59,  60,  61,  62,  63,  64,  65,  66
  67,  68,  69,  70,  71,  72,  73,  74,  75,  76,  77,  78,  79,  80,  81,  82
  83,  84,  85,  86,  87,  88,  89,  90,  91,  92,  93,  94,  95,  96,  97,  98
  99, 100, 101, 102, 103, 104, 105, 106, 107, 108, 109, 110, 111, 112, 113, 114
 115, 116, 117, 118, 119, 120, 121, 122, 123, 124, 125, 126, 127, 128, 129, 130
 131, 132, 133, 134, 135, 136, 137, 138, 139, 140, 141, 142, 143, 144, 145, 146
 147, 148, 149, 150, 151, 152, 153, 154, 155, 156, 157, 158, 159, 160, 161, 162
 163, 164, 165, 166, 167, 168, 169, 170, 171, 172, 173, 174, 175, 176, 177, 178
 179, 180, 181, 182, 183, 184, 185, 186, 187, 188, 189, 190, 191, 192, 193, 194
 195, 196, 197, 198, 199, 200, 201, 202, 203, 204, 205, 206, 207, 208, 209, 210
 211, 212, 213, 214, 215, 216, 217, 218, 219, 220, 221, 222, 223, 224, 225, 226
 227, 228, 229, 230, 231, 232, 233, 234, 235, 236, 347, 348, 349, 350, 351, 352
 353, 354, 355, 356, 357, 358, 359, 360, 361, 362, 363, 364, 365, 366, 367, 368
 369, 370, 371, 372, 373, 374, 375, 376, 377, 378, 379, 380, 381, 382, 383, 384
 385, 386, 387, 388, 389, 390, 391, 392, 393, 394, 395, 396, 397, 398, 399, 400
 401, 402, 403, 404, 405, 406, 407, 408, 409, 410, 411, 412, 413, 414, 415, 416
 417, 418, 419, 420, 421, 422, 423, 424, 425, 426, 427, 428, 429, 430, 431, 432
** ... 33 like lines cut
*Nset, nset=Set-17
 1,
*Elset, elset=Set-17, instance=Part-6-1
  40,  42,  43,  45,  46,  48,  49,  51,  52,  54,  55,  57,  58,  60,  61,  63
  64,  66,  67,  69,  70,  72,  73,  75,  76,  78,  79,  81,  82,  84,  85,  87
  88,  90,  91,  93,  94,  96,  97,  99, 100, 102, 103, 105, 106, 108, 109, 111
 112, 114, 115, 117, 118, 120, 121, 123, 124, 126, 127, 129, 130, 132, 133, 135
 136, 138, 139, 141, 142, 144, 145, 147, 148, 150, 151, 152, 153, 159, 165, 171
 172, 173, 174, 175, 176, 177, 178, 179, 180, 181, 182, 183, 184, 185, 186, 187
 188, 189, 190, 191, 192, 193, 194, 195, 196, 197, 198, 199, 200, 201, 202, 203
 204, 205, 206, 207, 208, 209, 210, 211, 212, 213, 214, 215, 216, 217, 218, 219
 220, 221, 222, 223, 224, 225, 226, 227, 228, 229, 230, 231, 232, 233, 234, 235
 236, 237, 238, 239, 240, 241, 242, 243, 244, 245, 246, 247, 248, 249, 250, 251
 252, 253, 254, 255, 256, 257, 258, 259, 260, 261, 262, 263, 264, 265, 266, 267
 268, 269, 270, 271, 272, 273, 274, 275, 276, 277, 278, 279, 280, 281, 282, 283
 284, 285, 286, 287, 288, 289, 290, 291, 292, 293, 294, 295, 296, 297, 298, 299
 300, 301, 302, 303, 304, 305, 306, 307, 308, 309, 310, 311, 312, 313, 314, 315
 316, 317, 318, 319, 320, 321, 322, 323, 324, 325, 326, 327, 328, 329, 330, 331
 332, 333, 334, 335, 336, 337, 338, 339, 340, 341, 342, 343, 344, 345, 346, 347
 348, 349, 350, 351, 352, 353, 354, 355, 356, 357, 358, 359, 360, 361, 362, 363
 364, 365, 366, 367, 368, 369, 370, 371, 372, 373, 374, 375, 376, 377, 378, 379
 380, 381, 382, 383, 384, 385, 386, 387, 388, 389, 390, 391, 392, 393, 394, 395
 396, 397, 398, 399, 400, 401, 402, 403, 404, 405, 406, 407, 408, 409, 410, 411
** ... 34 like lines cut
*Nset, nset=Set-18, instance=Water-1, generate
     1,  24723,      1
*Elset, elset=Set-18, instance=Water-1, generate
     1,  16000,      1
*Nset, nset=Set-19, instance=Part-6-1
   7,   8,   9,  10, 118, 119, 135, 136, 137, 138, 139, 140, 141, 142, 143, 144
 145, 146, 147, 148, 149, 150, 151, 152, 153, 154, 155, 156, 157, 158, 159, 160
 161, 162, 163, 164, 165, 166, 167, 168, 169, 170, 171, 172, 173, 174, 175, 176
 177, 178, 179, 180, 181, 182, 183, 184, 185, 186, 187, 188, 189, 190, 191, 192
 193, 194, 195, 196, 197, 198, 199, 200, 201, 202, 203, 204, 205, 206, 207, 208
 209, 210, 211, 212, 213, 214, 215, 216, 217, 218, 219, 220, 221, 222, 223, 224
 225, 226, 227, 228, 229, 230, 231, 232, 233, 234, 235, 236, 357, 358, 359, 360
 361, 362, 363, 364, 365, 366, 367, 368, 369, 370, 371, 372, 373, 374, 375, 376
 377, 378, 379, 380, 381, 382, 383, 384, 385, 386, 387, 388, 389, 390, 391, 392
 393, 394, 395, 396, 397, 398, 399, 400, 401, 402, 403, 404, 405, 406, 407, 408
 409, 410, 411, 412, 413, 414, 415, 416, 417, 418, 419, 420, 421, 422, 423, 424
 425, 426, 427, 428, 429, 430, 431, 432, 433, 434, 435, 436, 437, 438, 439, 440
 441, 442, 443, 444, 445, 446, 447, 448, 449, 450, 451, 452, 453, 454, 455, 456
*Elset, elset=Set-19, instance=Part-6-1, generate
 190,  342,    1
*Nset, nset=_PickedSet14, internal, instance=Water-1, generate
     1,  24723,      1
*Elset, elset=_PickedSet14, internal, instance=Water-1, generate
     1,  16000,      1
*Elset, elset=_m_Surf-9_S3, internal, instance=Water-1
     1,     2,     3,     4,     5,     6,     7,     8,     9,    10,    11,    12,    13,    14,    15,    16
    17,    18,    19,    20,    21,    22,    23,    24,    25,    26,    27,    28,    29,    30,    31,    32
    33,    34,    35,    36,    37,    38,    39,    40,    81,    82,    83,    84,    85,    86,    87,    88
    89,    90,    91,    92,    93,    94,    95,    96,    97,    98,    99,   100,   101,   102,   103,   104
   105,   106,   107,   108,   109,   110,   111,   112,   113,   114,   115,   116,   117,   118,   119,   120
   161,   162,   163,   164,   165,   166,   167,   168,   169,   170,   171,   172,   173,   174,   175,   176
   177,   178,   179,   180,   181,   182,   183,   184,   185,   186,   187,   188,   189,   190,   191,   192
   193,   194,   195,   196,   197,   198,   199,   200,   241,   242,   243,   244,   245,   246,   247,   248
   249,   250,   251,   252,   253,   254,   255,   256,   257,   258,   259,   260,   261,   262,   263,   264
   265,   266,   267,   268,   269,   270,   271,   272,   273,   274,   275,   276,   277,   278,   279,   280
   321,   322,   323,   324,   325,   326,   327,   328,   329,   330,   331,   332,   333,   334,   335,   336
   337,   338,   339,   340,   341,   342,   343,   344,   345,   346,   347,   348,   349,   350,   351,   352
   353,   354,   355,   356,   357,   358,   359,   360,   401,   402,   403,   404,   405,   406,   407,   408
   409,   410,   411,   412,   413,   414,   415,   416,   417,   418,   419,   420,   421,   422,   423,   424
   425,   426,   427,   428,   429,   430,   431,   432,   433,   434,   435,   436,   437,   438,   439,   440
   481,   482,   483,   484,   485,   486,   487,   488,   489,   490,   491,   492,   493,   494,   495,   496
   497,   498,   499,   500,   501,   502,   503,   504,   505,   506,   507,   508,   509,   510,   511,   512
   513,   514,   515,   516,   517,   518,   519,   520,   561,   562,   563,   564,   565,   566,   567,   568
   569,   570,   571,   572,   573,   574,   575,   576,   577,   578,   579,   580,   581,   582,   583,   584
   585,   586,   587,   588,   589,   590,   591,   592,   593,   594,   595,   596,   597,   598,   599,   600
** ... 480 like lines cut
*Surface, type=ELEMENT, name=m_Surf-9
_m_Surf-9_S3, S3
*Rigid Body, ref node=Applicator-1.Applicator-RefPt_, elset=Applicator-1.Applicator
*Rigid Body, ref node=Part-6-1.Part-6-RefPt_, elset=Part-6-1.Part-6
*End Assembly
*Amplitude, name=Amp-1, time=TOTAL TIME, definition=PERIODIC
1,              3.,              0.,              0.
             0.,              3.
*Amplitude, name=Amp-2
             0.,              0.,              1.,              1.
** 
** MATERIALS
** 
*Material, name=Material-Slab
*Density
28.,
*Elastic
 3.23e+08, 0.3
*Material, name=Water
*Density
1000.,
*Eos, type=USUP
1483.,0.,0.
*Viscosity
 0.0001,
** 
** INTERACTION PROPERTIES
** 
*Surface Interaction, name=IntProp-1
*Friction
 0.1,
*Surface Behavior, pressure-overclosure=HARD
*Surface Interaction, name=IntProp-2
*Friction
 0.2,
*Surface Behavior, pressure-overclosure=HARD
*Surface Interaction, name=IntProp-3
** 
** BOUNDARY CONDITIONS
** 
** Name: X Type: Velocity/Angular velocity
*Boundary, type=VELOCITY
Water-1.X, 1, 1
** Name: Y Type: Velocity/Angular velocity
*Boundary, type=VELOCITY
Water-1.Y, 2, 2
** Name: Z Type: Velocity/Angular velocity
*Boundary, type=VELOCITY
Water-1.Z, 3, 3
** 
** PREDEFINED FIELDS
** 
** Name: Predefined Field-1   Type: Material assignment
*Initial Conditions, type=VOLUME FRACTION
Water-1.22, Water-1.water-1, 1.
Water-1.23, Water-1.water-1, 1.
Water-1.24, Water-1.water-1, 1.
Water-1.25, Water-1.water-1, 1.
Water-1.26, Water-1.water-1, 1.
Water-1.27, Water-1.water-1, 1.
Water-1.28, Water-1.water-1, 1.
Water-1.29, Water-1.water-1, 1.
Water-1.30, Water-1.water-1, 1.
Water-1.31, Water-1.water-1, 1.
Water-1.32, Water-1.water-1, 1.
Water-1.33, Water-1.water-1, 1.
Water-1.34, Water-1.water-1, 1.
Water-1.35, Water-1.water-1, 1.
Water-1.36, Water-1.water-1, 1.
Water-1.37, Water-1.water-1, 1.
Water-1.38, Water-1.water-1, 1.
Water-1.39, Water-1.water-1, 1.
Water-1.40, Water-1.water-1, 1.
Water-1.62, Water-1.water-1, 1.
** ... 7580 like lines cut
** ----------------------------------------------------------------
** 
** STEP: Step-1
** 
*Step, name=Step-1, nlgeom=YES
*Dynamic, Explicit
, 5.
*Bulk Viscosity
0.06, 1.2
** 
** BOUNDARY CONDITIONS
** 
** Name: BC-4 Type: Displacement/Rotation
*Boundary, amplitude=Amp-1
Set-2, 1, 1, 0.01
Set-2, 2, 2
Set-2, 3, 3
Set-2, 4, 4
Set-2, 5, 5
Set-2, 6, 6
** Name: BC-10 Type: Symmetry/Antisymmetry/Encastre
*Boundary
Part-6-1.Set-bottom, ENCASTRE
** Name: BC-11 Type: Symmetry/Antisymmetry/Encastre
*Boundary
Part-6-1.Set-rf-parti-6, ENCASTRE
** 
** LOADS
** 
** Name: Load-1   Type: Gravity
*Dload
Set-13, GRAV, 0.98, 0., -1., 0.
** 
** INTERACTIONS
** 
** Interaction: Int-1
*Contact, op=NEW
*Contact Inclusions, ALL EXTERIOR
*Contact Property Assignment
 ,  , IntProp-1
** 
** OUTPUT REQUESTS
** 
*Restart, write, number interval=1, time marks=NO
** 
** FIELD OUTPUT: F-Output-1
** 
*Output, field, variable=PRESELECT, number interval=50
** 
** HISTORY OUTPUT: H-Output-1
** 
*Output, history, variable=PRESELECT
*End Step
